!-Generator IDFEditor 1.49
!-Option SortedOrder

!-NOTE: All comments with '!-' are ignored by the IDFEditor and are generated automatically.
!-      Use '!' comments if they need to be retained when using the IDFEditor.


!-   ===========  ALL OBJECTS IN CLASS: VERSION ===========

Version,
    8.7;                     !- Version Identifier


!-   ===========  ALL OBJECTS IN CLASS: SIMULATIONCONTROL ===========

SimulationControl,
    No,                      !- Do Zone Sizing Calculation
    No,                      !- Do System Sizing Calculation
    No,                      !- Do Plant Sizing Calculation
    No,                      !- Run Simulation for Sizing Periods
    Yes;                     !- Run Simulation for Weather File Run Periods


!-   ===========  ALL OBJECTS IN CLASS: BUILDING ===========

Building,
    Cross Ventilation,       !- Name
    45,                     !- North Axis {deg}
    City,                    !- Terrain
    0.04,                    !- Loads Convergence Tolerance Value
    0.4,                     !- Temperature Convergence Tolerance Value {deltaC}
    FullInteriorAndExterior, !- Solar Distribution
    25,                      !- Maximum Number of Warmup Days
    ;                        !- Minimum Number of Warmup Days


!-   ===========  ALL OBJECTS IN CLASS: TIMESTEP ===========

Timestep,
    4;                       !- Number of Timesteps per Hour


!-   ===========  ALL OBJECTS IN CLASS: SITE:LOCATION ===========

Site:Location,
    Sao_Paulo_SP_BRA Design_Conditions,  !- Name
    -23.85,                  !- Latitude {deg}
    -46.64,                  !- Longitude {deg}
    -3.00,                   !- Time Zone {hr}
    792.00;                  !- Elevation {m}


!-   ===========  ALL OBJECTS IN CLASS: RUNPERIOD ===========

RunPeriod,
    Run Period 1,            !- Name
    1,                       !- Begin Month
    1,                       !- Begin Day of Month
    12,                      !- End Month
    31,                      !- End Day of Month
    Sunday,                  !- Day of Week for Start Day
    No,                      !- Use Weather File Holidays and Special Days
    No,                      !- Use Weather File Daylight Saving Period
    No,                      !- Apply Weekend Holiday Rule
    Yes,                     !- Use Weather File Rain Indicators
    No,                      !- Use Weather File Snow Indicators
    1;                       !- Number of Times Runperiod to be Repeated


!-   ===========  ALL OBJECTS IN CLASS: SCHEDULETYPELIMITS ===========

ScheduleTypeLimits,
    Number,                  !- Name
    ,                        !- Lower Limit Value
    ,                        !- Upper Limit Value
    Continuous;              !- Numeric Type

ScheduleTypeLimits,
    Fracao,                  !- Name
    0,                       !- Lower Limit Value
    1,                       !- Upper Limit Value
    Continuous,              !- Numeric Type
    Availability;            !- Unit Type


!-   ===========  ALL OBJECTS IN CLASS: SCHEDULE:DAY:HOURLY ===========

Schedule:Day:Hourly,
    sch_util_OCUP,           !- Name
    Fracao,                  !- Schedule Type Limits Name
    0,                       !- Hour 1
    0,                       !- Hour 2
    0,                       !- Hour 3
    0,                       !- Hour 4
    0,                       !- Hour 5
    0,                       !- Hour 6
    0,                       !- Hour 7
    1,                       !- Hour 8
    1,                       !- Hour 9
    1,                       !- Hour 10
    1,                       !- Hour 11
    0.5,                     !- Hour 12
    1,                       !- Hour 13
    1,                       !- Hour 14
    1,                       !- Hour 15
    1,                       !- Hour 16
    1,                       !- Hour 17
    1,                       !- Hour 18
    0,                       !- Hour 19
    0,                       !- Hour 20
    0,                       !- Hour 21
    0,                       !- Hour 22
    0,                       !- Hour 23
    0;                       !- Hour 24

Schedule:Day:Hourly,
    sch_util_ILUMEQUIP,      !- Name
    Fracao,                  !- Schedule Type Limits Name
    0,                       !- Hour 1
    0,                       !- Hour 2
    0,                       !- Hour 3
    0,                       !- Hour 4
    0,                       !- Hour 5
    0,                       !- Hour 6
    0,                       !- Hour 7
    1,                       !- Hour 8
    1,                       !- Hour 9
    1,                       !- Hour 10
    1,                       !- Hour 11
    0.8,                     !- Hour 12
    1,                       !- Hour 13
    1,                       !- Hour 14
    1,                       !- Hour 15
    1,                       !- Hour 16
    1,                       !- Hour 17
    1,                       !- Hour 18
    0,                       !- Hour 19
    0,                       !- Hour 20
    0,                       !- Hour 21
    0,                       !- Hour 22
    0,                       !- Hour 23
    0;                       !- Hour 24

Schedule:Day:Hourly,
    sch_util_MM,             !- Name
    Fracao,                  !- Schedule Type Limits Name
    0,                       !- Hour 1
    0,                       !- Hour 2
    0,                       !- Hour 3
    0,                       !- Hour 4
    0,                       !- Hour 5
    0,                       !- Hour 6
    0,                       !- Hour 7
    1,                       !- Hour 8
    1,                       !- Hour 9
    1,                       !- Hour 10
    1,                       !- Hour 11
    1,                       !- Hour 12
    1,                       !- Hour 13
    1,                       !- Hour 14
    1,                       !- Hour 15
    1,                       !- Hour 16
    1,                       !- Hour 17
    1,                       !- Hour 18
    0,                       !- Hour 19
    0,                       !- Hour 20
    0,                       !- Hour 21
    0,                       !- Hour 22
    0,                       !- Hour 23
    0;                       !- Hour 24

Schedule:Day:Hourly,
    sch_sabdom,              !- Name
    Fracao,                  !- Schedule Type Limits Name
    0,                       !- Hour 1
    0,                       !- Hour 2
    0,                       !- Hour 3
    0,                       !- Hour 4
    0,                       !- Hour 5
    0,                       !- Hour 6
    0,                       !- Hour 7
    0,                       !- Hour 8
    0,                       !- Hour 9
    0,                       !- Hour 10
    0,                       !- Hour 11
    0,                       !- Hour 12
    0,                       !- Hour 13
    0,                       !- Hour 14
    0,                       !- Hour 15
    0,                       !- Hour 16
    0,                       !- Hour 17
    0,                       !- Hour 18
    0,                       !- Hour 19
    0,                       !- Hour 20
    0,                       !- Hour 21
    0,                       !- Hour 22
    0,                       !- Hour 23
    0;                       !- Hour 24


!-   ===========  ALL OBJECTS IN CLASS: SCHEDULE:WEEK:COMPACT ===========

Schedule:Week:Compact,
    Sch_Sem_Ocup,            !- Name
    Weekdays,                !- DayType List 1
    sch_util_OCUP,           !- Schedule:Day Name 1
    Saturday,                !- DayType List 2
    sch_sabdom,              !- Schedule:Day Name 2
    Sunday,                  !- DayType List 3
    sch_sabdom,              !- Schedule:Day Name 3
    AllOtherDays,            !- DayType List 4
    sch_util_OCUP;           !- Schedule:Day Name 4

Schedule:Week:Compact,
    Sch_Sem_ILUMEQUIP,       !- Name
    Weekdays,                !- DayType List 1
    sch_util_ILUMEQUIP,      !- Schedule:Day Name 1
    Saturday,                !- DayType List 2
    sch_sabdom,              !- Schedule:Day Name 2
    Sunday,                  !- DayType List 3
    sch_sabdom,              !- Schedule:Day Name 3
    AllOtherDays,            !- DayType List 4
    sch_util_ILUMEQUIP;      !- Schedule:Day Name 4

Schedule:Week:Compact,
    Sch_Sem_MM,              !- Name
    Weekdays,                !- DayType List 1
    sch_util_MM,             !- Schedule:Day Name 1
    Saturday,                !- DayType List 2
    sch_sabdom,              !- Schedule:Day Name 2
    Sunday,                  !- DayType List 3
    sch_sabdom,              !- Schedule:Day Name 3
    AllOtherDays,            !- DayType List 4
    sch_util_MM;             !- Schedule:Day Name 4


!-   ===========  ALL OBJECTS IN CLASS: SCHEDULE:YEAR ===========

Schedule:Year,
    Sch_Ocup,                !- Name
    Fracao,                  !- Schedule Type Limits Name
    Sch_Sem_Ocup,            !- Schedule:Week Name 1
    1,                       !- Start Month 1
    1,                       !- Start Day 1
    12,                      !- End Month 1
    31;                      !- End Day 1

Schedule:Year,
    Sch_light_equip,         !- Name
    Fracao,                  !- Schedule Type Limits Name
    Sch_Sem_ILUMEQUIP,       !- Schedule:Week Name 1
    1,                       !- Start Month 1
    1,                       !- Start Day 1
    12,                      !- End Month 1
    31;                      !- End Day 1

Schedule:Year,
    Sch_HVAC,                !- Name
    Fracao,                  !- Schedule Type Limits Name
    Sch_Sem_MM,              !- Schedule:Week Name 1
    1,                       !- Start Month 1
    1,                       !- Start Day 1
    12,                      !- End Month 1
    31;                      !- End Day 1

Schedule:Year,
    Sch_VN,                  !- Name
    Fracao,                  !- Schedule Type Limits Name
    Sch_Sem_MM,              !- Schedule:Week Name 1
    1,                       !- Start Month 1
    1,                       !- Start Day 1
    12,                      !- End Month 1
    31;                      !- End Day 1


!-   ===========  ALL OBJECTS IN CLASS: SCHEDULE:COMPACT ===========

Schedule:Compact,
    sch_acticity,            !- Name
    Number,                  !- Schedule Type Limits Name
    Through: 12/31,          !- Field 1
    for: alldays,            !- Field 2
    Until: 24:00,            !- Field 3
    117;                     !- Field 4

Schedule:Compact,
    sch_0,                   !- Name
    Number,                  !- Schedule Type Limits Name
    Through: 12/31,          !- Field 1
    for: alldays,            !- Field 2
    Until: 24:00,            !- Field 3
    0;                       !- Field 4

Schedule:Compact,
    sch_clo,                 !- Name
    Number,                  !- Schedule Type Limits Name
    Through: 12/31,          !- Field 1
    for: alldays,            !- Field 2
    Until: 24:00,            !- Field 3
    .5;                      !- Field 4

Schedule:Compact,
    sch_airvelocity,         !- Name
    Number,                  !- Schedule Type Limits Name
    Through: 12/31,          !- Field 1
    for: alldays,            !- Field 2
    Until: 24:00,            !- Field 3
    .2;                      !- Field 4

Schedule:Compact,
    sch_minoutdoor,          !- Name
    Number,                  !- Schedule Type Limits Name
    Through: 12/31,          !- Field 1
    for: alldays,            !- Field 2
    Until: 24:00,            !- Field 3
    .01;                     !- Field 4

Schedule:Compact,
    sch_Temp,                !- Name
    Number,                  !- Schedule Type Limits Name
    Through: 12/31,          !- Field 1
    for: alldays,            !- Field 2
    Until: 24:00,            !- Field 3
    20;                      !- Field 4


!-   ===========  ALL OBJECTS IN CLASS: MATERIAL ===========

Material,
    eW_HC,                   !- Name
    MediumRough,             !- Roughness
    0.05,                    !- Thickness {m}
    5,                       !- Conductivity {W/m-K}
    2380,                    !- Density {kg/m3}
    1000,                    !- Specific Heat {J/kg-K}
    0.9,                     !- Thermal Absorptance
    0.5,                     !- Solar Absorptance
    0.5;                     !- Visible Absorptance

Material,
    concrete slab 10cm,      !- Name
    MediumRough,             !- Roughness
    0.1,                     !- Thickness {m}
    1.75,                    !- Conductivity {W/m-K}
    2300,                    !- Density {kg/m3}
    1000,                    !- Specific Heat {J/kg-K}
    0.9,                     !- Thermal Absorptance
    0.5,                     !- Solar Absorptance
    0.5;                     !- Visible Absorptance


!-   ===========  ALL OBJECTS IN CLASS: MATERIAL:NOMASS ===========

Material:NoMass,
    eW_U,                    !- Name
    MediumRough,             !- Roughness
    0.19395,                 !- Thermal Resistance {m2-K/W}
    0.9,                     !- Thermal Absorptance
    0.5,                     !- Solar Absorptance
    0.5;                     !- Visible Absorptance


!-   ===========  ALL OBJECTS IN CLASS: WINDOWMATERIAL:SIMPLEGLAZINGSYSTEM ===========

WindowMaterial:SimpleGlazingSystem,
    glazing,                 !- Name
    5.67,                    !- U-Factor {W/m2-K}
    0.9,                     !- Solar Heat Gain Coefficient
    0.9;                     !- Visible Transmittance


!-   ===========  ALL OBJECTS IN CLASS: WINDOWMATERIAL:BLIND ===========

WindowMaterial:Blind,
    Blind,                   !- Name
    Horizontal,              !- Slat Orientation
    0.025,                   !- Slat Width {m}
    0.01875,                 !- Slat Separation {m}
    0.001,                   !- Slat Thickness {m}
    45,                      !- Slat Angle {deg}
    221,                     !- Slat Conductivity {W/m-K}
    0,                       !- Slat Beam Solar Transmittance
    0,                       !- Front Side Slat Beam Solar Reflectance
    0,                       !- Back Side Slat Beam Solar Reflectance
    0,                       !- Slat Diffuse Solar Transmittance
    0,                       !- Front Side Slat Diffuse Solar Reflectance
    0,                       !- Back Side Slat Diffuse Solar Reflectance
    0.0,                     !- Slat Beam Visible Transmittance
    0.7,                     !- Front Side Slat Beam Visible Reflectance
    0.7,                     !- Back Side Slat Beam Visible Reflectance
    0.0,                     !- Slat Diffuse Visible Transmittance
    0.7,                     !- Front Side Slat Diffuse Visible Reflectance
    0.7,                     !- Back Side Slat Diffuse Visible Reflectance
    0.0,                     !- Slat Infrared Hemispherical Transmittance
    0.9,                     !- Front Side Slat Infrared Hemispherical Emissivity
    0.9,                     !- Back Side Slat Infrared Hemispherical Emissivity
    0.050,                   !- Blind to Glass Distance {m}
    0.0,                     !- Blind Top Opening Multiplier
    0.0,                     !- Blind Bottom Opening Multiplier
    0.5,                     !- Blind Left Side Opening Multiplier
    0.5,                     !- Blind Right Side Opening Multiplier
    2.91,                    !- Minimum Slat Angle {deg}
    177.09;                  !- Maximum Slat Angle {deg}


!-   ===========  ALL OBJECTS IN CLASS: CONSTRUCTION ===========

Construction,
    Wall,                    !- Name
    eW_HC,                   !- Outside Layer
    eW_U,                    !- Layer 2
    eW_HC;                   !- Layer 3

Construction,
    Slab,                    !- Name
    concrete slab 10cm;      !- Outside Layer

Construction,
    Window,                  !- Name
    glazing;                 !- Outside Layer


!-   ===========  ALL OBJECTS IN CLASS: GLOBALGEOMETRYRULES ===========

GlobalGeometryRules,
    UpperLeftCorner,         !- Starting Vertex Position
    Counterclockwise,        !- Vertex Entry Direction
    Relative;                !- Coordinate System


!-   ===========  ALL OBJECTS IN CLASS: ZONE ===========

Zone,
    Zn1,                     !- Name
    0,                       !- Direction of Relative North {deg}
    0.0,                     !- X Origin {m}
    0.0,                     !- Y Origin {m}
    13.5,                    !- Z Origin {m}
    ,                        !- Type
    1;                       !- Multiplier


!-   ===========  ALL OBJECTS IN CLASS: BUILDINGSURFACE:DETAILED ===========

BuildingSurface:Detailed,
    Piso,                    !- Name
    Floor,                   !- Surface Type
    Slab,                    !- Construction Name
    Zn1,                     !- Zone Name
    Adiabatic,               !- Outside Boundary Condition
    ,                        !- Outside Boundary Condition Object
    NoSun,                   !- Sun Exposure
    NoWind,                  !- Wind Exposure
    0.0,                     !- View Factor to Ground
    4,                       !- Number of Vertices
    5.000000000000,          !- Vertex 1 X-coordinate {m}
    8.000000000000,          !- Vertex 1 Y-coordinate {m}
    0.000000000000,          !- Vertex 1 Z-coordinate {m}
    5.000000000000,          !- Vertex 2 X-coordinate {m}
    0.000000000000,          !- Vertex 2 Y-coordinate {m}
    0.000000000000,          !- Vertex 2 Z-coordinate {m}
    0.000000000000,          !- Vertex 3 X-coordinate {m}
    0.000000000000,          !- Vertex 3 Y-coordinate {m}
    0.000000000000,          !- Vertex 3 Z-coordinate {m}
    0.000000000000,          !- Vertex 4 X-coordinate {m}
    8.000000000000,          !- Vertex 4 Y-coordinate {m}
    0.000000000000;          !- Vertex 4 Z-coordinate {m}

BuildingSurface:Detailed,
    Zn1_par4,                !- Name
    Wall,                    !- Surface Type
    Wall,                    !- Construction Name
    Zn1,                     !- Zone Name
    Outdoors,                !- Outside Boundary Condition
    ,                        !- Outside Boundary Condition Object
    SunExposed,              !- Sun Exposure
    WindExposed,             !- Wind Exposure
    ,                        !- View Factor to Ground
    4,                       !- Number of Vertices
    0.000000000000,          !- Vertex 1 X-coordinate {m}
    8.000000000000,          !- Vertex 1 Y-coordinate {m}
    2.700000000000,          !- Vertex 1 Z-coordinate {m}
    0.000000000000,          !- Vertex 2 X-coordinate {m}
    8.000000000000,          !- Vertex 2 Y-coordinate {m}
    0.000000000000,          !- Vertex 2 Z-coordinate {m}
    0.000000000000,          !- Vertex 3 X-coordinate {m}
    0.000000000000,          !- Vertex 3 Y-coordinate {m}
    0.000000000000,          !- Vertex 3 Z-coordinate {m}
    0.000000000000,          !- Vertex 4 X-coordinate {m}
    0.000000000000,          !- Vertex 4 Y-coordinate {m}
    2.700000000000;          !- Vertex 4 Z-coordinate {m}

BuildingSurface:Detailed,
    Zn1_par3,                !- Name
    Wall,                    !- Surface Type
    Wall,                    !- Construction Name
    Zn1,                     !- Zone Name
    Adiabatic,               !- Outside Boundary Condition
    ,                        !- Outside Boundary Condition Object
    NoSun,                   !- Sun Exposure
    NoWind,                  !- Wind Exposure
    ,                        !- View Factor to Ground
    4,                       !- Number of Vertices
    5.000000000000,          !- Vertex 1 X-coordinate {m}
    8.000000000000,          !- Vertex 1 Y-coordinate {m}
    2.700000000000,          !- Vertex 1 Z-coordinate {m}
    5.000000000000,          !- Vertex 2 X-coordinate {m}
    8.000000000000,          !- Vertex 2 Y-coordinate {m}
    0.000000000000,          !- Vertex 2 Z-coordinate {m}
    0.000000000000,          !- Vertex 3 X-coordinate {m}
    8.000000000000,          !- Vertex 3 Y-coordinate {m}
    0.000000000000,          !- Vertex 3 Z-coordinate {m}
    0.000000000000,          !- Vertex 4 X-coordinate {m}
    8.000000000000,          !- Vertex 4 Y-coordinate {m}
    2.700000000000;          !- Vertex 4 Z-coordinate {m}

BuildingSurface:Detailed,
    Zn1_par1,                !- Name
    Wall,                    !- Surface Type
    Wall,                    !- Construction Name
    Zn1,                     !- Zone Name
    Outdoors,                !- Outside Boundary Condition
    ,                        !- Outside Boundary Condition Object
    SunExposed,              !- Sun Exposure
    WindExposed,             !- Wind Exposure
    ,                        !- View Factor to Ground
    4,                       !- Number of Vertices
    0.000000000000,          !- Vertex 1 X-coordinate {m}
    0.000000000000,          !- Vertex 1 Y-coordinate {m}
    2.700000000000,          !- Vertex 1 Z-coordinate {m}
    0.000000000000,          !- Vertex 2 X-coordinate {m}
    0.000000000000,          !- Vertex 2 Y-coordinate {m}
    0.000000000000,          !- Vertex 2 Z-coordinate {m}
    5.000000000000,          !- Vertex 3 X-coordinate {m}
    0.000000000000,          !- Vertex 3 Y-coordinate {m}
    0.000000000000,          !- Vertex 3 Z-coordinate {m}
    5.000000000000,          !- Vertex 4 X-coordinate {m}
    0.000000000000,          !- Vertex 4 Y-coordinate {m}
    2.700000000000;          !- Vertex 4 Z-coordinate {m}

BuildingSurface:Detailed,
    Zn1_par2,                !- Name
    Wall,                    !- Surface Type
    Wall,                    !- Construction Name
    Zn1,                     !- Zone Name
    Adiabatic,               !- Outside Boundary Condition
    ,                        !- Outside Boundary Condition Object
    NoSun,                   !- Sun Exposure
    NoWind,                  !- Wind Exposure
    ,                        !- View Factor to Ground
    4,                       !- Number of Vertices
    5.000000000000,          !- Vertex 1 X-coordinate {m}
    0.000000000000,          !- Vertex 1 Y-coordinate {m}
    2.700000000000,          !- Vertex 1 Z-coordinate {m}
    5.000000000000,          !- Vertex 2 X-coordinate {m}
    0.000000000000,          !- Vertex 2 Y-coordinate {m}
    0.000000000000,          !- Vertex 2 Z-coordinate {m}
    5.000000000000,          !- Vertex 3 X-coordinate {m}
    8.000000000000,          !- Vertex 3 Y-coordinate {m}
    0.000000000000,          !- Vertex 3 Z-coordinate {m}
    5.000000000000,          !- Vertex 4 X-coordinate {m}
    8.000000000000,          !- Vertex 4 Y-coordinate {m}
    2.700000000000;          !- Vertex 4 Z-coordinate {m}

BuildingSurface:Detailed,
    Cobe,                    !- Name
    Ceiling,                 !- Surface Type
    Slab,                    !- Construction Name
    Zn1,                     !- Zone Name
    Adiabatic,               !- Outside Boundary Condition
    ,                        !- Outside Boundary Condition Object
    NoSun,                   !- Sun Exposure
    NoWind,                  !- Wind Exposure
    ,                        !- View Factor to Ground
    4,                       !- Number of Vertices
    0.000000000000,          !- Vertex 1 X-coordinate {m}
    8.000000000000,          !- Vertex 1 Y-coordinate {m}
    2.700000000000,          !- Vertex 1 Z-coordinate {m}
    0.000000000000,          !- Vertex 2 X-coordinate {m}
    0.000000000000,          !- Vertex 2 Y-coordinate {m}
    2.700000000000,          !- Vertex 2 Z-coordinate {m}
    5.000000000000,          !- Vertex 3 X-coordinate {m}
    0.000000000000,          !- Vertex 3 Y-coordinate {m}
    2.700000000000,          !- Vertex 3 Z-coordinate {m}
    5.000000000000,          !- Vertex 4 X-coordinate {m}
    8.000000000000,          !- Vertex 4 Y-coordinate {m}
    2.700000000000;          !- Vertex 4 Z-coordinate {m}


!-   ===========  ALL OBJECTS IN CLASS: FENESTRATIONSURFACE:DETAILED ===========

FenestrationSurface:Detailed,
    Zn1_par1_jan,            !- Name
    Window,                  !- Surface Type
    Window,                  !- Construction Name
    Zn1_par1,                !- Building Surface Name
    ,                        !- Outside Boundary Condition Object
    ,                        !- View Factor to Ground
    Shading_blind,           !- Shading Control Name
    ,                        !- Frame and Divider Name
    ,                        !- Multiplier
    4,                       !- Number of Vertices
    0.050000000000,          !- Vertex 1 X-coordinate {m}
    0.000000000000,          !- Vertex 1 Y-coordinate {m}
    1.57653,                 !- Vertex 1 Z-coordinate {m}
    0.050000000000,          !- Vertex 2 X-coordinate {m}
    0.000000000000,          !- Vertex 2 Y-coordinate {m}
    0.750000000000,          !- Vertex 2 Z-coordinate {m}
    4.950000000000,          !- Vertex 3 X-coordinate {m}
    0.000000000000,          !- Vertex 3 Y-coordinate {m}
    0.750000000000,          !- Vertex 3 Z-coordinate {m}
    4.950000000000,          !- Vertex 4 X-coordinate {m}
    0.000000000000,          !- Vertex 4 Y-coordinate {m}
    1.57653;                 !- Vertex 4 Z-coordinate {m}

FenestrationSurface:Detailed,
    Zn1_par4_jan,            !- Name
    Window,                  !- Surface Type
    Window,                  !- Construction Name
    Zn1_par4,                !- Building Surface Name
    ,                        !- Outside Boundary Condition Object
    ,                        !- View Factor to Ground
    Shading_blind,           !- Shading Control Name
    ,                        !- Frame and Divider Name
    ,                        !- Multiplier
    4,                       !- Number of Vertices
    0.000000000000,          !- Vertex 1 X-coordinate {m}
    7.920000000000,          !- Vertex 1 Y-coordinate {m}
    1.57653,                 !- Vertex 1 Z-coordinate {m}
    0.000000000000,          !- Vertex 2 X-coordinate {m}
    7.920000000000,          !- Vertex 2 Y-coordinate {m}
    0.750000000000,          !- Vertex 2 Z-coordinate {m}
    0.000000000000,          !- Vertex 3 X-coordinate {m}
    0.080000000000,          !- Vertex 3 Y-coordinate {m}
    0.750000000000,          !- Vertex 3 Z-coordinate {m}
    0.000000000000,          !- Vertex 4 X-coordinate {m}
    0.080000000000,          !- Vertex 4 Y-coordinate {m}
    1.57653;                 !- Vertex 4 Z-coordinate {m}


!-   ===========  ALL OBJECTS IN CLASS: WINDOWPROPERTY:SHADINGCONTROL ===========

WindowProperty:ShadingControl,
    Shading_blind,           !- Name
    InteriorBlind,           !- Shading Type
    ,                        !- Construction with Shading Name
    OnIfScheduleAllows,      !- Shading Control Type
    Sch_VN,                  !- Schedule Name
    ,                        !- Setpoint {W/m2 W or deg C}
    Yes,                     !- Shading Control Is Scheduled
    No,                      !- Glare Control Is Active
    Blind,                   !- Shading Device Material Name
    BlockBeamSolar,          !- Type of Slat Angle Control for Blinds
    ;                        !- Slat Angle Schedule Name


!-   ===========  ALL OBJECTS IN CLASS: SHADING:OVERHANG:PROJECTION ===========

Shading:Overhang:Projection,
    Zn1_par1_brise,          !- Name
    Zn1_par1_jan,            !- Window or Door Name
    ,                        !- Height above Window or Door {m}
    90,                      !- Tilt Angle from Window/Door {deg}
    ,                        !- Left extension from Window/Door Width {m}
    ,                        !- Right extension from Window/Door Width {m}
    0.01;                    !- Depth as Fraction of Window/Door Height {dimensionless}

Shading:Overhang:Projection,
    Zn1_par4_brise,          !- Name
    Zn1_par4_jan,            !- Window or Door Name
    ,                        !- Height above Window or Door {m}
    90,                      !- Tilt Angle from Window/Door {deg}
    ,                        !- Left extension from Window/Door Width {m}
    ,                        !- Right extension from Window/Door Width {m}
    0.01;                    !- Depth as Fraction of Window/Door Height {dimensionless}


!-   ===========  ALL OBJECTS IN CLASS: SHADING:FIN:PROJECTION ===========

Shading:Fin:Projection,
    fin_par1,                !- Name
    Zn1_par1_jan,            !- Window or Door Name
    0,                       !- Left Extension from Window/Door {m}
    0,                       !- Left Distance Above Top of Window {m}
    0,                       !- Left Distance Below Bottom of Window {m}
    90,                      !- Left Tilt Angle from Window/Door {deg}
    0.004,                   !- Left Depth as Fraction of Window/Door Width {dimensionless}
    0,                       !- Right Extension from Window/Door {m}
    0,                       !- Right Distance Above Top of Window {m}
    0,                       !- Right Distance Below Bottom of Window {m}
    90,                      !- Right Tilt Angle from Window/Door {deg}